216

C      0.00000000       0.00000000       0.0000000
C      0.88200000       0.88200000       0.8820000
C      1.76400000       1.76400000       0.0000000
C      2.64600000       2.64600000       0.8820000
C      1.76400000       0.00000000       1.7640000
C      2.64600000       0.88200000       2.6460000
C      0.00000000       1.76400000       1.7640000
C      0.88200000       2.64600000       2.6460000
C      0.00000000       0.00000000       3.5280000
C      0.88200000       0.88200000       4.4100000
C      1.76400000       1.76400000       3.5280000
C      2.64600000       2.64600000       4.4100000
C      1.76400000       0.00000000       5.2920000
C      2.64600000       0.88200000       6.1740000
C      0.00000000       1.76400000       5.2920000
C      0.88200000       2.64600000       6.1740000
C      0.00000000       0.00000000       7.0560000
C      0.88200000       0.88200000       7.9380000
C      1.76400000       1.76400000       7.0560000
C      2.64600000       2.64600000       7.9380000
C      1.76400000       0.00000000       8.8200000
C      2.64600000       0.88200000       9.7020000
C      0.00000000       1.76400000       8.8200000
C      0.88200000       2.64600000       9.7020000
C      0.00000000       3.52800000       0.0000000
C      0.88200000       4.41000000       0.8820000
C      1.76400000       5.29200000       0.0000000
C      2.64600000       6.17400000       0.8820000
C      1.76400000       3.52800000       1.7640000
C      2.64600000       4.41000000       2.6460000
C      0.00000000       5.29200000       1.7640000
C      0.88200000       6.17400000       2.6460000
C      0.00000000       3.52800000       3.5280000
C      0.88200000       4.41000000       4.4100000
C      1.76400000       5.29200000       3.5280000
C      2.64600000       6.17400000       4.4100000
C      1.76400000       3.52800000       5.2920000
C      2.64600000       4.41000000       6.1740000
C      0.00000000       5.29200000       5.2920000
C      0.88200000       6.17400000       6.1740000
C      0.00000000       3.52800000       7.0560000
C      0.88200000       4.41000000       7.9380000
C      1.76400000       5.29200000       7.0560000
C      2.64600000       6.17400000       7.9380000
C      1.76400000       3.52800000       8.8200000
C      2.64600000       4.41000000       9.7020000
C      0.00000000       5.29200000       8.8200000
C      0.88200000       6.17400000       9.7020000
C      0.00000000       7.05600000       0.0000000
C      0.88200000       7.93800000       0.8820000
C      1.76400000       8.82000000       0.0000000
C      2.64600000       9.70200000       0.8820000
C      1.76400000       7.05600000       1.7640000
C      2.64600000       7.93800000       2.6460000
C      0.00000000       8.82000000       1.7640000
C      0.88200000       9.70200000       2.6460000
C      0.00000000       7.05600000       3.5280000
C      0.88200000       7.93800000       4.4100000
C      1.76400000       8.82000000       3.5280000
C      2.64600000       9.70200000       4.4100000
C      1.76400000       7.05600000       5.2920000
C      2.64600000       7.93800000       6.1740000
C      0.00000000       8.82000000       5.2920000
C      0.88200000       9.70200000       6.1740000
C      0.00000000       7.05600000       7.0560000
C      0.88200000       7.93800000       7.9380000
C      1.76400000       8.82000000       7.0560000
C      2.64600000       9.70200000       7.9380000
C      1.76400000       7.05600000       8.8200000
C      2.64600000       7.93800000       9.7020000
C      0.00000000       8.82000000       8.8200000
C      0.88200000       9.70200000       9.7020000
C      3.52800000       0.00000000       0.0000000
C      4.41000000       0.88200000       0.8820000
C      5.29200000       1.76400000       0.0000000
C      6.17400000       2.64600000       0.8820000
C      5.29200000       0.00000000       1.7640000
C      6.17400000       0.88200000       2.6460000
C      3.52800000       1.76400000       1.7640000
C      4.41000000       2.64600000       2.6460000
C      3.52800000       0.00000000       3.5280000
C      4.41000000       0.88200000       4.4100000
C      5.29200000       1.76400000       3.5280000
C      6.17400000       2.64600000       4.4100000
C      5.29200000       0.00000000       5.2920000
C      6.17400000       0.88200000       6.1740000
C      3.52800000       1.76400000       5.2920000
C      4.41000000       2.64600000       6.1740000
C      3.52800000       0.00000000       7.0560000
C      4.41000000       0.88200000       7.9380000
C      5.29200000       1.76400000       7.0560000
C      6.17400000       2.64600000       7.9380000
C      5.29200000       0.00000000       8.8200000
C      6.17400000       0.88200000       9.7020000
C      3.52800000       1.76400000       8.8200000
C      4.41000000       2.64600000       9.7020000
C      3.52800000       3.52800000       0.0000000
C      4.41000000       4.41000000       0.8820000
C      5.29200000       5.29200000       0.0000000
C      6.17400000       6.17400000       0.8820000
C      5.29200000       3.52800000       1.7640000
C      6.17400000       4.41000000       2.6460000
C      3.52800000       5.29200000       1.7640000
C      4.41000000       6.17400000       2.6460000
C      3.52800000       3.52800000       3.5280000
C      4.41000000       4.41000000       4.4100000
C      5.29200000       5.29200000       3.5280000
C      6.17400000       6.17400000       4.4100000
C      5.29200000       3.52800000       5.2920000
C      6.17400000       4.41000000       6.1740000
C      3.52800000       5.29200000       5.2920000
C      4.41000000       6.17400000       6.1740000
C      3.52800000       3.52800000       7.0560000
C      4.41000000       4.41000000       7.9380000
C      5.29200000       5.29200000       7.0560000
C      6.17400000       6.17400000       7.9380000
C      5.29200000       3.52800000       8.8200000
C      6.17400000       4.41000000       9.7020000
C      3.52800000       5.29200000       8.8200000
C      4.41000000       6.17400000       9.7020000
C      3.52800000       7.05600000       0.0000000
C      4.41000000       7.93800000       0.8820000
C      5.29200000       8.82000000       0.0000000
C      6.17400000       9.70200000       0.8820000
C      5.29200000       7.05600000       1.7640000
C      6.17400000       7.93800000       2.6460000
C      3.52800000       8.82000000       1.7640000
C      4.41000000       9.70200000       2.6460000
C      3.52800000       7.05600000       3.5280000
C      4.41000000       7.93800000       4.4100000
C      5.29200000       8.82000000       3.5280000
C      6.17400000       9.70200000       4.4100000
C      5.29200000       7.05600000       5.2920000
C      6.17400000       7.93800000       6.1740000
C      3.52800000       8.82000000       5.2920000
C      4.41000000       9.70200000       6.1740000
C      3.52800000       7.05600000       7.0560000
C      4.41000000       7.93800000       7.9380000
C      5.29200000       8.82000000       7.0560000
C      6.17400000       9.70200000       7.9380000
C      5.29200000       7.05600000       8.8200000
C      6.17400000       7.93800000       9.7020000
C      3.52800000       8.82000000       8.8200000
C      4.41000000       9.70200000       9.7020000
C      7.05600000       0.00000000       0.0000000
C      7.93800000       0.88200000       0.8820000
C      8.82000000       1.76400000       0.0000000
C      9.70200000       2.64600000       0.8820000
C      8.82000000       0.00000000       1.7640000
C      9.70200000       0.88200000       2.6460000
C      7.05600000       1.76400000       1.7640000
C      7.93800000       2.64600000       2.6460000
C      7.05600000       0.00000000       3.5280000
C      7.93800000       0.88200000       4.4100000
C      8.82000000       1.76400000       3.5280000
C      9.70200000       2.64600000       4.4100000
C      8.82000000       0.00000000       5.2920000
C      9.70200000       0.88200000       6.1740000
C      7.05600000       1.76400000       5.2920000
C      7.93800000       2.64600000       6.1740000
C      7.05600000       0.00000000       7.0560000
C      7.93800000       0.88200000       7.9380000
C      8.82000000       1.76400000       7.0560000
C      9.70200000       2.64600000       7.9380000
C      8.82000000       0.00000000       8.8200000
C      9.70200000       0.88200000       9.7020000
C      7.05600000       1.76400000       8.8200000
C      7.93800000       2.64600000       9.7020000
C      7.05600000       3.52800000       0.0000000
C      7.93800000       4.41000000       0.8820000
C      8.82000000       5.29200000       0.0000000
C      9.70200000       6.17400000       0.8820000
C      8.82000000       3.52800000       1.7640000
C      9.70200000       4.41000000       2.6460000
C      7.05600000       5.29200000       1.7640000
C      7.93800000       6.17400000       2.6460000
C      7.05600000       3.52800000       3.5280000
C      7.93800000       4.41000000       4.4100000
C      8.82000000       5.29200000       3.5280000
C      9.70200000       6.17400000       4.4100000
C      8.82000000       3.52800000       5.2920000
C      9.70200000       4.41000000       6.1740000
C      7.05600000       5.29200000       5.2920000
C      7.93800000       6.17400000       6.1740000
C      7.05600000       3.52800000       7.0560000
C      7.93800000       4.41000000       7.9380000
C      8.82000000       5.29200000       7.0560000
C      9.70200000       6.17400000       7.9380000
C      8.82000000       3.52800000       8.8200000
C      9.70200000       4.41000000       9.7020000
C      7.05600000       5.29200000       8.8200000
C      7.93800000       6.17400000       9.7020000
C      7.05600000       7.05600000       0.0000000
C      7.93800000       7.93800000       0.8820000
C      8.82000000       8.82000000       0.0000000
C      9.70200000       9.70200000       0.8820000
C      8.82000000       7.05600000       1.7640000
C      9.70200000       7.93800000       2.6460000
C      7.05600000       8.82000000       1.7640000
C      7.93800000       9.70200000       2.6460000
C      7.05600000       7.05600000       3.5280000
C      7.93800000       7.93800000       4.4100000
C      8.82000000       8.82000000       3.5280000
C      9.70200000       9.70200000       4.4100000
C      8.82000000       7.05600000       5.2920000
C      9.70200000       7.93800000       6.1740000
C      7.05600000       8.82000000       5.2920000
C      7.93800000       9.70200000       6.1740000
C      7.05600000       7.05600000       7.0560000
C      7.93800000       7.93800000       7.9380000
C      8.82000000       8.82000000       7.0560000
C      9.70200000       9.70200000       7.9380000
C      8.82000000       7.05600000       8.8200000
C      9.70200000       7.93800000       9.7020000
C      7.05600000       8.82000000       8.8200000
C      7.93800000       9.70200000       9.7020000
